15
	Energy:       5.9969088
O         -0.00256        0.00878        0.00183
C         -0.18746        0.64435        1.23009
C          0.09780       -0.33620        2.36626
H         -1.23504        1.00868        1.29300
H          0.50119        1.51379        1.29300
C         -0.09638        0.33128        3.73294
H          1.14514       -0.69972        2.27614
H         -0.59108       -1.20483        2.27614
C          0.18858       -0.64821        4.87089
H         -1.14372        0.69519        3.82231
H          0.59229        1.20024        3.82231
O         -0.00000        0.00001        6.09743
H          1.24126       -1.00224        4.79325
H         -0.50991       -1.51169        4.79325
H          0.19632       -0.67478        6.79817
